# generated using pymatgen
data_LiCaBO3
_symmetry_space_group_name_H-M   Pbca
_cell_length_a   6.12726600
_cell_length_b   13.34483700
_cell_length_c   6.23753400
_cell_angle_alpha   90.00000000
_cell_angle_beta   90.00000000
_cell_angle_gamma   90.00000000
_symmetry_Int_Tables_number   61
_chemical_formula_structural   LiCaBO3
_chemical_formula_sum   'Li8 Ca8 B8 O24'
_cell_volume   510.02672568
_cell_formula_units_Z   8
loop_
 _symmetry_equiv_pos_site_id
 _symmetry_equiv_pos_as_xyz
  1  'x, y, z'
  2  '-x, -y, -z'
  3  '-x+1/2, -y, z+1/2'
  4  'x+1/2, y, -z+1/2'
  5  'x+1/2, -y+1/2, -z'
  6  '-x+1/2, y+1/2, z'
  7  '-x, y+1/2, -z+1/2'
  8  'x, -y+1/2, z+1/2'
loop_
 _atom_type_symbol
 _atom_type_oxidation_number
  Li+  1.0
  Ca2+  2.0
  B3+  3.0
  O2-  -2.0
loop_
 _atom_site_type_symbol
 _atom_site_label
 _atom_site_symmetry_multiplicity
 _atom_site_fract_x
 _atom_site_fract_y
 _atom_site_fract_z
 _atom_site_occupancy
  Li+  Li0  8  0.01559400  0.74801500  0.79091100  1
  Ca2+  Ca1  8  0.24890200  0.07026800  0.50962700  1
  B3+  B2  8  0.24992800  0.14782300  0.01749400  1
  O2-  O3  8  0.10171400  0.09516100  0.14425200  1
  O2-  O4  8  0.11806600  0.59522700  0.87383700  1
  O2-  O5  8  0.23373000  0.74914900  0.53479100  1
